Circuit: * C:\Users\sethr\OneDrive\Desktop\ECEN-390\ECEN390\Labs\LTspice Transmission Line Lab\LTspice Transmission Line Lab.asc

WARNING: Node N002 is floating.

.OP point found by inspection.

Date: Wed Oct 08 08:17:58 2025
Total elapsed time: 0.080 seconds.

tnom = 27
temp = 27
method = modified trap
totiter = 2082
traniter = 2082
tranpoints = 1042
accept = 1042
rejected = 0
matrix size = 9
fillins = 4
solver = Normal
Matrix Compiler1: 604 bytes object code size  0.2/0.2/[0.1]
Matrix Compiler2: 729 bytes object code size  0.1/0.3/[0.1]

