Circuit: * C:\Users\sethr\OneDrive\Desktop\ECEN-390\ECEN390\Labs\LTspice Pulsed T-Line Lab\T-Line Lab Part 1.asc

WARNING: Node N002 is floating.

.OP point found by inspection.

Date: Fri Oct 10 11:30:22 2025
Total elapsed time: 0.067 seconds.

tnom = 27
temp = 27
method = modified trap
totiter = 2106
traniter = 2106
tranpoints = 1054
accept = 1052
rejected = 2
matrix size = 9
fillins = 4
solver = Normal
Matrix Compiler1: 604 bytes object code size  0.1/0.1/[0.1]
Matrix Compiler2: 729 bytes object code size  0.1/0.1/[0.1]

